34Bus/Test runs/20_Switching/ieee34-1_Power_elem_kVA.txt

CIRCUIT ELEMENT POWER FLOW

(Power Flow into element from indicated Bus)

Power Delivery Elements

  Bus     Phase     kW     +j   kvar         kVA         PF

ELEMENT = "Vsource.SOURCE"
SOURCEBUS     1      -539.6 +j    -54.1      542.3       0.9950
SOURCEBUS     2      -479.8 +j     26.6      480.5      -0.9985
SOURCEBUS     3      -579.6 +j     38.0      580.9      -0.9979
   TERMINAL TOTAL . -1599.0 +j     10.5     1599.0      -1.0000
SOURCEBUS     0         0.0 +j      0.0        0.0       1.0000
SOURCEBUS     0         0.0 +j      0.0        0.0       1.0000
SOURCEBUS     0         0.0 +j      0.0        0.0       1.0000
   TERMINAL TOTAL .     0.0 +j      0.0        0.0       1.0000

ELEMENT = "Transformer.SUBXF"
SOURCEBUS     1       539.6 +j     54.1      542.3       0.9950
SOURCEBUS     2       479.8 +j    -26.6      480.5      -0.9985
SOURCEBUS     3       579.6 +j    -38.0      580.9      -0.9979
SOURCEBUS     0         0.0 +j      0.0        0.0       1.0000
   TERMINAL TOTAL .  1599.0 +j    -10.5     1599.0      -1.0000
800           1      -610.9 +j    -67.1      614.5       0.9940
800           2      -515.2 +j     14.1      515.4      -0.9996
800           3      -472.9 +j     63.6      477.2      -0.9911
800           0         0.0 +j      0.0        0.0       1.0000
   TERMINAL TOTAL . -1599.0 +j     10.6     1599.0      -1.0000

ELEMENT = "Line.L1"
800           1       610.9 +j     67.1      614.5       0.9940
800           2       515.2 +j    -14.1      515.4      -0.9996
800           3       472.9 +j    -63.6      477.2      -0.9911
   TERMINAL TOTAL .  1599.0 +j    -10.6     1599.0      -1.0000
802           1      -609.8 +j    -67.1      613.5       0.9940
802           2      -514.6 +j     13.9      514.7      -0.9996
802           3      -472.5 +j     63.3      476.7      -0.9911
   TERMINAL TOTAL . -1596.9 +j     10.1     1596.9      -1.0000

ELEMENT = "Line.L2"
802           1       609.8 +j     67.1      613.5       0.9940
802           2       499.6 +j    -21.4      500.0      -0.9991
802           3       460.0 +j    -70.3      465.3      -0.9885
   TERMINAL TOTAL .  1569.4 +j    -24.6     1569.6      -0.9999
806           1      -609.2 +j    -67.2      612.8       0.9940
806           2      -499.2 +j     21.3      499.6      -0.9991
806           3      -459.7 +j     70.1      465.0      -0.9886
   TERMINAL TOTAL . -1568.0 +j     24.3     1568.2      -0.9999

ELEMENT = "Line.L3"
806           1       609.2 +j     67.2      612.8       0.9940
806           2       484.2 +j    -28.8      485.0      -0.9982
806           3       447.2 +j    -77.1      453.8      -0.9855
   TERMINAL TOTAL .  1540.5 +j    -38.8     1541.0      -0.9997
808           1      -596.2 +j    -67.3      600.0       0.9937
808           2      -477.7 +j     26.7      478.4      -0.9984
808           3      -441.8 +j     72.9      447.7      -0.9866
   TERMINAL TOTAL . -1515.7 +j     32.3     1516.0      -0.9998

ELEMENT = "Line.L4"
808           2         8.3 +j      3.3        8.9       0.9303
   TERMINAL TOTAL .     8.3 +j      3.3        8.9       0.9303
810           2        -8.3 +j     -4.3        9.3       0.8877
   TERMINAL TOTAL .    -8.3 +j     -4.3        9.3       0.8877

ELEMENT = "Line.L5"
808           1       596.2 +j     67.3      600.0       0.9937
808           2       461.1 +j    -34.3      462.4      -0.9972
808           3       441.8 +j    -72.9      447.7      -0.9866
   TERMINAL TOTAL .  1499.1 +j    -39.9     1499.6      -0.9996
812           1      -581.2 +j    -66.7      585.0       0.9935
812           2      -454.3 +j     31.4      455.3      -0.9976
812           3      -435.3 +j     68.3      440.6      -0.9879
   TERMINAL TOTAL . -1470.8 +j     33.0     1471.1      -0.9997

ELEMENT = "Line.L6"
812           1       581.2 +j     66.7      585.0       0.9935
812           2       454.3 +j    -31.4      455.3      -0.9976
812           3       435.3 +j    -68.3      440.6      -0.9879
   TERMINAL TOTAL .  1470.8 +j    -33.0     1471.1      -0.9997
814           1      -569.2 +j    -65.8      573.0       0.9934
814           2      -448.9 +j     29.3      449.9      -0.9979
814           3      -430.2 +j     64.7      435.0      -0.9889
   TERMINAL TOTAL . -1448.3 +j     28.2     1448.6      -0.9998

ELEMENT = "Line.L7"
814R          1       569.1 +j     65.6      572.9       0.9934
814R          2       448.9 +j    -29.4      449.9      -0.9979
814R          3       430.2 +j    -64.8      435.0      -0.9888
   TERMINAL TOTAL .  1448.2 +j    -28.6     1448.4      -0.9998
850           1      -569.1 +j    -65.6      572.9       0.9934
850           2      -448.9 +j     29.4      449.9      -0.9979
850           3      -430.2 +j     64.8      435.0      -0.9888
   TERMINAL TOTAL . -1448.1 +j     28.6     1448.4      -0.9998

ELEMENT = "Line.L8"
816           1       173.7 +j     78.7      190.7       0.9108
   TERMINAL TOTAL .   173.7 +j     78.7      190.7       0.9108
818           1      -173.5 +j    -79.0      190.7       0.9102
   TERMINAL TOTAL .  -173.5 +j    -79.0      190.7       0.9102

ELEMENT = "Line.L9"
816           1       395.2 +j    -13.1      395.5      -0.9994
816           2       447.2 +j    -29.1      448.2      -0.9979
816           3       429.1 +j    -66.1      434.2      -0.9884
   TERMINAL TOTAL .  1271.6 +j   -108.3     1276.2      -0.9964
824           1      -392.9 +j     11.4      393.1      -0.9996
824           2      -443.9 +j     28.3      444.8      -0.9980
824           3      -426.5 +j     65.4      431.5      -0.9884
   TERMINAL TOTAL . -1263.3 +j    105.1     1267.7      -0.9966

ELEMENT = "Line.L10"
818           1       155.7 +j     70.0      170.7       0.9120
   TERMINAL TOTAL .   155.7 +j     70.0      170.7       0.9120
820           1      -152.2 +j    -76.3      170.3       0.8939
   TERMINAL TOTAL .  -152.2 +j    -76.3      170.3       0.8939

ELEMENT = "Line.L11"
820           1        67.7 +j     32.8       75.2       0.8997
   TERMINAL TOTAL .    67.7 +j     32.8       75.2       0.8997
822           1       -67.5 +j    -35.0       76.0       0.8878
   TERMINAL TOTAL .   -67.5 +j    -35.0       76.0       0.8878

ELEMENT = "Line.L12"
824           2        20.3 +j      9.6       22.5       0.9034
   TERMINAL TOTAL .    20.3 +j      9.6       22.5       0.9034
826           2       -20.3 +j    -10.2       22.7       0.8944
   TERMINAL TOTAL .   -20.3 +j    -10.2       22.7       0.8944

ELEMENT = "Line.L13"
824           1       392.9 +j    -11.4      393.1      -0.9996
824           2       401.7 +j    -47.9      404.5      -0.9930
824           3       423.5 +j    -67.6      428.9      -0.9875
   TERMINAL TOTAL .  1218.1 +j   -127.0     1224.7      -0.9946
828           1      -392.7 +j     11.3      392.9      -0.9996
828           2      -401.5 +j     47.8      404.3      -0.9930
828           3      -423.3 +j     67.6      428.6      -0.9875
   TERMINAL TOTAL . -1217.5 +j    126.7     1224.1      -0.9946

ELEMENT = "Line.L14"
828           1       389.2 +j    -12.8      389.4      -0.9995
828           2       401.5 +j    -47.8      404.3      -0.9930
828           3       421.3 +j    -68.6      426.8      -0.9870
   TERMINAL TOTAL .  1212.0 +j   -129.2     1218.9      -0.9944
830           1      -384.7 +j      9.6      384.8      -0.9997
830           2      -396.0 +j     45.6      398.6      -0.9934
830           3      -416.0 +j     67.2      421.4      -0.9872
   TERMINAL TOTAL . -1196.7 +j    122.4     1202.9      -0.9948

ELEMENT = "Line.L15"
830           1       369.8 +j    -19.4      370.4      -0.9986
830           2       389.0 +j    -49.2      392.0      -0.9921
830           3       402.7 +j    -69.4      408.7      -0.9855
   TERMINAL TOTAL .  1161.5 +j   -138.0     1169.7      -0.9930
854           1      -369.7 +j     19.4      370.2      -0.9986
854           2      -388.8 +j     49.1      391.9      -0.9921
854           3      -402.6 +j     69.3      408.5      -0.9855
   TERMINAL TOTAL . -1161.2 +j    137.8     1169.3      -0.9930

ELEMENT = "Line.L16"
832           1       252.7 +j    -72.6      263.0      -0.9611
832           2       268.0 +j   -100.6      286.2      -0.9362
832           3       286.1 +j   -124.4      312.0      -0.9171
   TERMINAL TOTAL .   806.8 +j   -297.6      859.9      -0.9382
858           1      -252.3 +j     71.5      262.3      -0.9621
858           2      -267.2 +j     99.6      285.2      -0.9370
858           3      -285.5 +j    123.6      311.1      -0.9176
   TERMINAL TOTAL .  -805.0 +j    294.8      857.3      -0.9390

ELEMENT = "Line.L17"
834           1        93.3 +j     68.1      115.5       0.8079
834           2        97.2 +j     57.2      112.8       0.8616
834           3       100.4 +j     34.9      106.3       0.9444
   TERMINAL TOTAL .   290.8 +j    160.2      332.1       0.8759
860           1       -93.3 +j    -68.6      115.8       0.8058
860           2       -97.1 +j    -57.7      112.9       0.8596
860           3      -100.4 +j    -35.4      106.4       0.9431
   TERMINAL TOTAL .  -290.7 +j   -161.7      332.7       0.8739

ELEMENT = "Line.L18"
834           1       122.9 +j   -178.0      216.3      -0.5682
834           2       148.2 +j   -161.3      219.0      -0.6766
834           3       128.3 +j   -169.5      212.6      -0.6035
   TERMINAL TOTAL .   399.4 +j   -508.8      646.8      -0.6175
842           1      -122.9 +j    177.9      216.3      -0.5683
842           2      -148.2 +j    161.2      218.9      -0.6767
842           3      -128.3 +j    169.4      212.5      -0.6035
   TERMINAL TOTAL .  -399.3 +j    508.6      646.6      -0.6175

ELEMENT = "Line.L19"
836           1        12.6 +j      4.6       13.4       0.9400
836           2        17.1 +j      9.3       19.5       0.8776
836           3        10.5 +j     11.0       15.2       0.6912
   TERMINAL TOTAL .    40.2 +j     24.9       47.2       0.8502
840           1       -12.6 +j     -4.8       13.5       0.9345
840           2       -17.1 +j     -9.6       19.6       0.8727
840           3       -10.5 +j    -11.2       15.3       0.6852
   TERMINAL TOTAL .   -40.2 +j    -25.5       47.6       0.8442

ELEMENT = "Line.L20"
836           1        -0.0 +j     -0.1        0.1       0.0652
836           2        28.0 +j     13.1       30.9       0.9064
836           3        -0.0 +j     -0.1        0.1       0.0564
   TERMINAL TOTAL .    28.0 +j     12.9       30.8       0.9081
862           1        -0.0 +j     -0.0        0.0       0.0614
862           2       -28.0 +j    -13.1       30.9       0.9055
862           3         0.0 +j      0.0        0.0       0.8367
   TERMINAL TOTAL .   -28.0 +j    -13.1       30.9       0.9055

ELEMENT = "Line.L21"
842           1       119.8 +j   -179.7      215.9      -0.5546
842           2       148.2 +j   -161.2      218.9      -0.6767
842           3       128.3 +j   -169.4      212.5      -0.6035
   TERMINAL TOTAL .   396.2 +j   -510.3      646.1      -0.6132
844           1      -119.7 +j    179.4      215.6      -0.5550
844           2      -148.0 +j    160.9      218.6      -0.6770
844           3      -128.2 +j    169.2      212.3      -0.6039
   TERMINAL TOTAL .  -395.9 +j    509.5      645.2      -0.6136

ELEMENT = "Line.L22"
844           1        14.1 +j   -152.4      153.0      -0.0921
844           2        39.1 +j   -137.0      142.5      -0.2745
844           3        21.0 +j   -145.0      146.5      -0.1436
   TERMINAL TOTAL .    74.2 +j   -434.4      440.7      -0.1685
846           1       -14.0 +j    151.5      152.1      -0.0923
846           2       -38.9 +j    136.2      141.6      -0.2747
846           3       -21.0 +j    144.2      145.7      -0.1439
   TERMINAL TOTAL .   -73.9 +j    431.8      438.1      -0.1687

ELEMENT = "Line.L23"
846           1        14.0 +j   -151.5      152.1      -0.0923
846           2        22.1 +j   -144.2      145.9      -0.1515
846           3        14.0 +j   -148.0      148.7      -0.0939
   TERMINAL TOTAL .    50.1 +j   -443.7      446.6      -0.1122
848           1       -14.0 +j    151.3      152.0      -0.0923
848           2       -22.1 +j    144.1      145.8      -0.1514
848           3       -14.0 +j    147.9      148.6      -0.0939
   TERMINAL TOTAL .   -50.1 +j    443.4      446.2      -0.1122

ELEMENT = "Line.L24"
850           1       569.1 +j     65.6      572.9       0.9934
850           2       448.9 +j    -29.4      449.9      -0.9979
850           3       430.2 +j    -64.8      435.0      -0.9888
   TERMINAL TOTAL .  1448.1 +j    -28.6     1448.4      -0.9998
816           1      -568.9 +j    -65.6      572.7       0.9934
816           2      -448.8 +j     29.4      449.8      -0.9979
816           3      -430.1 +j     64.8      434.9      -0.9888
   TERMINAL TOTAL . -1447.8 +j     28.6     1448.1      -0.9998

ELEMENT = "Line.L25"
852R          1       362.2 +j    -13.8      362.5      -0.9993
852R          2       375.5 +j    -43.3      378.0      -0.9934
852R          3       393.6 +j    -66.9      399.2      -0.9859
   TERMINAL TOTAL .  1131.3 +j   -124.0     1138.1      -0.9941
832           1      -362.2 +j     13.8      362.5      -0.9993
832           2      -375.5 +j     43.3      378.0      -0.9934
832           3      -393.6 +j     66.9      399.2      -0.9859
   TERMINAL TOTAL . -1131.3 +j    123.9     1138.1      -0.9941

ELEMENT = "Transformer.XFM1"
832           1       108.2 +j     58.3      123.0       0.8803
832           2       107.2 +j     57.1      121.4       0.8826
832           3       106.4 +j     57.0      120.7       0.8816
832           0         0.0 +j      0.0        0.0       1.0000
   TERMINAL TOTAL .   321.8 +j    172.4      365.1       0.8815
888           1      -106.7 +j    -54.9      120.0       0.8890
888           2      -105.6 +j    -53.7      118.4       0.8914
888           3      -104.9 +j    -53.6      117.8       0.8904
888           0         0.0 +j      0.0        0.0       1.0000
   TERMINAL TOTAL .  -317.1 +j   -162.3      356.2       0.8902

ELEMENT = "Line.L26"
854           2         2.0 +j     -2.9        3.5      -0.5694
   TERMINAL TOTAL .     2.0 +j     -2.9        3.5      -0.5694
856           2        -2.0 +j     -1.0        2.2       0.8944
   TERMINAL TOTAL .    -2.0 +j     -1.0        2.2       0.8944

ELEMENT = "Line.L27"
854           1       369.7 +j    -19.4      370.2      -0.9986
854           2       384.8 +j    -47.2      387.7      -0.9926
854           3       402.6 +j    -69.3      408.5      -0.9855
   TERMINAL TOTAL .  1157.2 +j   -135.9     1165.1      -0.9932
852           1      -362.3 +j     13.7      362.5      -0.9993
852           2      -375.5 +j     43.2      378.0      -0.9934
852           3      -393.6 +j     66.8      399.3      -0.9859
   TERMINAL TOTAL . -1131.4 +j    123.7     1138.2      -0.9941

ELEMENT = "Line.L28"
858           1         0.7 +j      0.1        0.7       0.9965
   TERMINAL TOTAL .     0.7 +j      0.1        0.7       0.9965
864           1        -0.7 +j     -0.3        0.8       0.8944
   TERMINAL TOTAL .    -0.7 +j     -0.3        0.8       0.8944

ELEMENT = "Line.L29"
858           1       246.5 +j    -76.1      258.0      -0.9555
858           2       261.5 +j   -100.4      280.1      -0.9336
858           3       277.6 +j   -128.2      305.8      -0.9079
   TERMINAL TOTAL .   785.5 +j   -304.7      842.6      -0.9323
834           1      -246.0 +j     74.7      257.1      -0.9568
834           2      -260.6 +j     99.3      278.9      -0.9345
834           3      -276.9 +j    127.3      304.8      -0.9086
   TERMINAL TOTAL .  -783.5 +j    301.4      839.5      -0.9333

ELEMENT = "Line.L30"
860           1        35.6 +j     14.6       38.5       0.9250
860           2        64.5 +j     34.3       73.1       0.8829
860           3        29.7 +j     18.7       35.1       0.8463
   TERMINAL TOTAL .   129.9 +j     67.6      146.4       0.8869
836           1       -35.7 +j    -15.4       38.8       0.9186
836           2       -64.4 +j    -35.0       73.3       0.8789
836           3       -29.7 +j    -19.3       35.5       0.8387
   TERMINAL TOTAL .  -129.8 +j    -69.6      147.3       0.8813

ELEMENT = "Line.L31"
862           2        14.0 +j      6.1       15.3       0.9162
   TERMINAL TOTAL .    14.0 +j      6.1       15.3       0.9162
838           2       -14.0 +j     -7.0       15.7       0.8944
   TERMINAL TOTAL .   -14.0 +j     -7.0       15.7       0.8944

ELEMENT = "Line.L32"
888           1       106.7 +j     54.9      120.0       0.8890
888           2       105.6 +j     53.7      118.4       0.8914
888           3       104.9 +j     53.6      117.8       0.8904
   TERMINAL TOTAL .   317.1 +j    162.3      356.2       0.8902
890           1      -100.9 +j    -51.2      113.2       0.8919
890           2      -100.7 +j    -49.7      112.3       0.8967
890           3       -99.4 +j    -49.6      111.1       0.8948
   TERMINAL TOTAL .  -301.1 +j   -150.5      336.6       0.8944

ELEMENT = "Capacitor.C844"
844           1         0.0 +j   -108.4      108.4       1.0000
844           2         0.0 +j   -106.0      106.0       1.0000
844           3         0.0 +j   -106.0      106.0      -0.0000
   TERMINAL TOTAL .     0.0 +j   -320.4      320.4      -0.0000
844           0         0.0 +j      0.0        0.0       1.0000
844           0         0.0 +j      0.0        0.0       1.0000
844           0         0.0 +j      0.0        0.0       1.0000
   TERMINAL TOTAL .     0.0 +j      0.0        0.0       1.0000

ELEMENT = "Capacitor.C848"
848           1         0.0 +j   -162.7      162.7       1.0000
848           2         0.0 +j   -159.0      159.0       1.0000
848           3        -0.0 +j   -159.1      159.1       0.0000
   TERMINAL TOTAL .    -0.0 +j   -480.8      480.8       0.0000
848           0         0.0 +j      0.0        0.0       1.0000
848           0         0.0 +j      0.0        0.0       1.0000
848           0         0.0 +j      0.0        0.0       1.0000
   TERMINAL TOTAL .     0.0 +j      0.0        0.0       1.0000

ELEMENT = "Transformer.REG1A"
814           1       569.2 +j     65.8      573.0       0.9934
814           0         0.0 +j      0.0        0.0       1.0000
   TERMINAL TOTAL .   569.2 +j     65.8      573.0       0.9934
814R          1      -569.1 +j    -65.6      572.9       0.9934
814R          0         0.0 +j      0.0        0.0       1.0000
   TERMINAL TOTAL .  -569.1 +j    -65.6      572.9       0.9934

ELEMENT = "Transformer.REG1B"
814           2       448.9 +j    -29.3      449.9      -0.9979
814           0         0.0 +j      0.0        0.0       1.0000
   TERMINAL TOTAL .   448.9 +j    -29.3      449.9      -0.9979
814R          2      -448.9 +j     29.4      449.9      -0.9979
814R          0         0.0 +j      0.0        0.0       1.0000
   TERMINAL TOTAL .  -448.9 +j     29.4      449.9      -0.9979

ELEMENT = "Transformer.REG1C"
814           3       430.2 +j    -64.7      435.0      -0.9889
814           0         0.0 +j      0.0        0.0       1.0000
   TERMINAL TOTAL .   430.2 +j    -64.7      435.0      -0.9889
814R          3      -430.2 +j     64.8      435.0      -0.9888
814R          0         0.0 +j      0.0        0.0       1.0000
   TERMINAL TOTAL .  -430.2 +j     64.8      435.0      -0.9888

ELEMENT = "Transformer.REG2A"
852           1       362.3 +j    -13.7      362.5      -0.9993
852           0         0.0 +j      0.0        0.0       1.0000
   TERMINAL TOTAL .   362.3 +j    -13.7      362.5      -0.9993
852R          1      -362.2 +j     13.8      362.5      -0.9993
852R          0         0.0 +j      0.0        0.0       1.0000
   TERMINAL TOTAL .  -362.2 +j     13.8      362.5      -0.9993

ELEMENT = "Transformer.REG2B"
852           2       375.5 +j    -43.2      378.0      -0.9934
852           0         0.0 +j      0.0        0.0       1.0000
   TERMINAL TOTAL .   375.5 +j    -43.2      378.0      -0.9934
852R          2      -375.5 +j     43.3      378.0      -0.9934
852R          0         0.0 +j      0.0        0.0       1.0000
   TERMINAL TOTAL .  -375.5 +j     43.3      378.0      -0.9934

ELEMENT = "Transformer.REG2C"
852           3       393.6 +j    -66.8      399.3      -0.9859
852           0         0.0 +j      0.0        0.0       1.0000
   TERMINAL TOTAL .   393.6 +j    -66.8      399.3      -0.9859
852R          3      -393.6 +j     66.9      399.2      -0.9859
852R          0         0.0 +j      0.0        0.0       1.0000
   TERMINAL TOTAL .  -393.6 +j     66.9      399.2      -0.9859

= = = = = = = = = = = = = = = = = = =  = = = = = = = = = = =  = =

Power Conversion Elements

  Bus     Phase     kW   +j  kvar         kVA         PF

ELEMENT = "Load.S860"
860           1      14.0 +j   11.2       17.9       0.7809
860           2      14.0 +j   11.2       17.9       0.7809
860           3      14.0 +j   11.2       17.9       0.7809
860           0       0.0 +j    0.0        0.0       1.0000
  TERMINAL TOTAL  .    42.0 +j     33.6       53.8       0.7809

ELEMENT = "Load.S840"
840           1       6.6 +j    5.1        8.3       0.7894
840           2       6.5 +j    5.0        8.2       0.7894
840           3       6.5 +j    5.0        8.2       0.7894
840           0       0.0 +j    0.0        0.0       1.0000
  TERMINAL TOTAL  .    19.5 +j     15.2       24.7       0.7894

ELEMENT = "Load.S844"
844           1     102.4 +j   79.7      129.8       0.7894
844           2     100.2 +j   77.9      126.9       0.7894
844           3     100.1 +j   77.9      126.9       0.7894
844           0       0.0 +j    0.0        0.0       1.0000
  TERMINAL TOTAL  .   302.7 +j    235.5      383.5       0.7894

ELEMENT = "Load.S848"
848           1      14.0 +j   11.4       18.1       0.7768
848           2      14.0 +j   11.1       17.9       0.7848
848           3      14.0 +j   11.2       17.9       0.7810
  TERMINAL TOTAL  .    42.0 +j     33.6       53.8       0.7809

ELEMENT = "Load.S830A"
830           1       4.6 +j   -0.3        4.6      -0.9984
830           2       2.5 +j    3.8        4.6       0.5540
  TERMINAL TOTAL  .     7.1 +j      3.5        7.9       0.8944

ELEMENT = "Load.S830B"
830           2       4.5 +j   -0.3        4.5      -0.9980
830           3       2.5 +j    3.8        4.5       0.5458
  TERMINAL TOTAL  .     7.0 +j      3.5        7.8       0.8944

ELEMENT = "Load.S830C"
830           3      10.8 +j   -1.6       10.9      -0.9896
830           1       6.8 +j    8.6       11.0       0.6205
  TERMINAL TOTAL  .    17.6 +j      7.0       18.9       0.9285

ELEMENT = "Load.S890"
890           1     100.9 +j   51.2      113.2       0.8919
890           2     100.7 +j   49.7      112.3       0.8967
890           3      99.4 +j   49.6      111.1       0.8948
  TERMINAL TOTAL  .   301.1 +j    150.5      336.6       0.8944

ELEMENT = "Load.D858_864SB"
858           1       0.7 +j    0.4        0.8       0.8944
858           0       0.0 +j    0.0        0.0       1.0000
  TERMINAL TOTAL  .     0.7 +j      0.4        0.8       0.8944

ELEMENT = "Load.D858_864RB"
864           1       0.7 +j    0.4        0.8       0.8944
864           0       0.0 +j    0.0        0.0       1.0000
  TERMINAL TOTAL  .     0.7 +j      0.4        0.8       0.8944

ELEMENT = "Load.D858_834SA"
858           1       0.9 +j   -0.0        0.9      -0.9987
858           2       0.5 +j    0.7        0.9       0.5535
  TERMINAL TOTAL  .     1.4 +j      0.7        1.6       0.8944

ELEMENT = "Load.D858_834RA"
834           1       0.9 +j   -0.0        0.9      -0.9987
834           2       0.5 +j    0.7        0.9       0.5537
  TERMINAL TOTAL  .     1.4 +j      0.7        1.6       0.8944

ELEMENT = "Load.D842_844SA"
842           1       3.1 +j    1.7        3.6       0.8742
842           0       0.0 +j    0.0        0.0       1.0000
  TERMINAL TOTAL  .     3.1 +j      1.7        3.6       0.8742

ELEMENT = "Load.D842_844RA"
844           1       3.2 +j    1.8        3.6       0.8742
844           0       0.0 +j    0.0        0.0       1.0000
  TERMINAL TOTAL  .     3.2 +j      1.8        3.6       0.8742

ELEMENT = "Load.D844_846SB"
844           2       8.8 +j    4.2        9.7       0.9015
844           0       0.0 +j    0.0        0.0       1.0000
  TERMINAL TOTAL  .     8.8 +j      4.2        9.7       0.9015

ELEMENT = "Load.D844_846RB"
846           2       8.8 +j    4.2        9.7       0.9015
846           0       0.0 +j    0.0        0.0       1.0000
  TERMINAL TOTAL  .     8.8 +j      4.2        9.7       0.9015

ELEMENT = "Load.D844_846SC"
844           3       7.0 +j    3.9        8.0       0.8762
844           0       0.0 +j    0.0        0.0       1.0000
  TERMINAL TOTAL  .     7.0 +j      3.9        8.0       0.8762

ELEMENT = "Load.D844_846RC"
846           3       7.0 +j    3.8        8.0       0.8762
846           0       0.0 +j    0.0        0.0       1.0000
  TERMINAL TOTAL  .     7.0 +j      3.8        8.0       0.8762

ELEMENT = "Load.D846_848SB"
846           2       8.1 +j    3.9        8.9       0.9021
846           0       0.0 +j    0.0        0.0       1.0000
  TERMINAL TOTAL  .     8.1 +j      3.9        8.9       0.9021

ELEMENT = "Load.D846_848RB"
848           2       8.0 +j    3.8        8.9       0.9021
848           0       0.0 +j    0.0        0.0       1.0000
  TERMINAL TOTAL  .     8.0 +j      3.8        8.9       0.9021

ELEMENT = "Load.D802_806SB"
802           2      15.0 +j    7.5       16.8       0.8944
802           0       0.0 +j    0.0        0.0       1.0000
  TERMINAL TOTAL  .    15.0 +j      7.5       16.8       0.8944

ELEMENT = "Load.D802_806RB"
806           2      15.0 +j    7.5       16.8       0.8944
806           0       0.0 +j    0.0        0.0       1.0000
  TERMINAL TOTAL  .    15.0 +j      7.5       16.8       0.8944

ELEMENT = "Load.D802_806SC"
802           3      12.5 +j    7.0       14.3       0.8725
802           0       0.0 +j    0.0        0.0       1.0000
  TERMINAL TOTAL  .    12.5 +j      7.0       14.3       0.8725

ELEMENT = "Load.D802_806RC"
806           3      12.5 +j    7.0       14.3       0.8725
806           0       0.0 +j    0.0        0.0       1.0000
  TERMINAL TOTAL  .    12.5 +j      7.0       14.3       0.8725

ELEMENT = "Load.D808_810SB"
808           2       8.3 +j    4.3        9.3       0.8877
808           0       0.0 +j    0.0        0.0       1.0000
  TERMINAL TOTAL  .     8.3 +j      4.3        9.3       0.8877

ELEMENT = "Load.D808_810RB"
810           2       8.3 +j    4.3        9.3       0.8877
810           0       0.0 +j    0.0        0.0       1.0000
  TERMINAL TOTAL  .     8.3 +j      4.3        9.3       0.8877

ELEMENT = "Load.D818_820SA"
818           1      17.8 +j    8.9       19.9       0.8944
818           0       0.0 +j    0.0        0.0       1.0000
  TERMINAL TOTAL  .    17.8 +j      8.9       19.9       0.8944

ELEMENT = "Load.D818_820RA"
820           1      17.0 +j    8.5       19.0       0.8944
820           0       0.0 +j    0.0        0.0       1.0000
  TERMINAL TOTAL  .    17.0 +j      8.5       19.0       0.8944

ELEMENT = "Load.D820_822SA"
820           1      67.5 +j   35.0       76.0       0.8878
820           0       0.0 +j    0.0        0.0       1.0000
  TERMINAL TOTAL  .    67.5 +j     35.0       76.0       0.8878

ELEMENT = "Load.D820_822RA"
822           1      67.5 +j   35.0       76.0       0.8878
822           0       0.0 +j    0.0        0.0       1.0000
  TERMINAL TOTAL  .    67.5 +j     35.0       76.0       0.8878

ELEMENT = "Load.D816_824SB"
816           2       1.6 +j   -0.2        1.6      -0.9892
816           3       1.0 +j    1.2        1.6       0.6127
  TERMINAL TOTAL  .     2.5 +j      1.0        2.7       0.9285

ELEMENT = "Load.D816_824RB"
824           2       1.6 +j   -0.2        1.6      -0.9892
824           3       1.0 +j    1.2        1.6       0.6131
  TERMINAL TOTAL  .     2.5 +j      1.0        2.7       0.9285

ELEMENT = "Load.D828_830SA"
828           1       3.5 +j    1.5        3.8       0.9191
828           0       0.0 +j    0.0        0.0       1.0000
  TERMINAL TOTAL  .     3.5 +j      1.5        3.8       0.9191

ELEMENT = "Load.D828_830RA"
830           1       3.5 +j    1.5        3.8       0.9191
830           0       0.0 +j    0.0        0.0       1.0000
  TERMINAL TOTAL  .     3.5 +j      1.5        3.8       0.9191

ELEMENT = "Load.D854_856SB"
854           2       2.0 +j    1.0        2.2       0.8944
854           0       0.0 +j    0.0        0.0       1.0000
  TERMINAL TOTAL  .     2.0 +j      1.0        2.2       0.8944

ELEMENT = "Load.D854_856RB"
856           2       2.0 +j    1.0        2.2       0.8944
856           0       0.0 +j    0.0        0.0       1.0000
  TERMINAL TOTAL  .     2.0 +j      1.0        2.2       0.8944

ELEMENT = "Load.D832_858SA"
832           1       1.3 +j    0.5        1.4       0.9191
832           0       0.0 +j    0.0        0.0       1.0000
  TERMINAL TOTAL  .     1.3 +j      0.5        1.4       0.9191

ELEMENT = "Load.D832_858RA"
858           1       1.3 +j    0.5        1.4       0.9191
858           0       0.0 +j    0.0        0.0       1.0000
  TERMINAL TOTAL  .     1.3 +j      0.5        1.4       0.9191

ELEMENT = "Load.D832_858SB"
832           2       0.4 +j    0.2        0.4       0.8944
832           0       0.0 +j    0.0        0.0       1.0000
  TERMINAL TOTAL  .     0.4 +j      0.2        0.4       0.8944

ELEMENT = "Load.D832_858RB"
858           2       0.4 +j    0.2        0.4       0.8944
858           0       0.0 +j    0.0        0.0       1.0000
  TERMINAL TOTAL  .     0.4 +j      0.2        0.4       0.8944

ELEMENT = "Load.D832_858SC"
832           3       1.1 +j    0.5        1.2       0.8944
832           0       0.0 +j    0.0        0.0       1.0000
  TERMINAL TOTAL  .     1.1 +j      0.5        1.2       0.8944

ELEMENT = "Load.D832_858RC"
858           3       1.1 +j    0.5        1.2       0.8944
858           0       0.0 +j    0.0        0.0       1.0000
  TERMINAL TOTAL  .     1.1 +j      0.5        1.2       0.8944

ELEMENT = "Load.D824_826SB"
824           2      20.3 +j   10.2       22.7       0.8944
824           0       0.0 +j    0.0        0.0       1.0000
  TERMINAL TOTAL  .    20.3 +j     10.2       22.7       0.8944

ELEMENT = "Load.D824_826RB"
826           2      20.3 +j   10.2       22.7       0.8944
826           0       0.0 +j    0.0        0.0       1.0000
  TERMINAL TOTAL  .    20.3 +j     10.2       22.7       0.8944

ELEMENT = "Load.D824_828SC"
824           3       2.0 +j    1.0        2.2       0.8944
824           0       0.0 +j    0.0        0.0       1.0000
  TERMINAL TOTAL  .     2.0 +j      1.0        2.2       0.8944

ELEMENT = "Load.D824_828RC"
828           3       2.0 +j    1.0        2.2       0.8944
828           0       0.0 +j    0.0        0.0       1.0000
  TERMINAL TOTAL  .     2.0 +j      1.0        2.2       0.8944

ELEMENT = "Load.D834_860SA"
834           1       5.6 +j   -0.3        5.6      -0.9987
834           2       3.1 +j    4.6        5.5       0.5537
  TERMINAL TOTAL  .     8.6 +j      4.3        9.7       0.8944

ELEMENT = "Load.D834_860RA"
860           1       5.6 +j   -0.3        5.6      -0.9987
860           2       3.1 +j    4.6        5.5       0.5538
  TERMINAL TOTAL  .     8.6 +j      4.3        9.7       0.8944

ELEMENT = "Load.D834_860SB"
834           2       6.8 +j   -0.4        6.8      -0.9980
834           3       3.7 +j    5.7        6.8       0.5484
  TERMINAL TOTAL  .    10.6 +j      5.3       11.8       0.8944

ELEMENT = "Load.D834_860RB"
860           2       6.8 +j   -0.4        6.8      -0.9980
860           3       3.7 +j    5.7        6.8       0.5484
  TERMINAL TOTAL  .    10.6 +j      5.3       11.8       0.8944

ELEMENT = "Load.D834_860SC"
834           3      37.7 +j   -2.5       37.8      -0.9978
834           1      21.0 +j   31.9       38.2       0.5509
  TERMINAL TOTAL  .    58.7 +j     29.4       65.7       0.8944

ELEMENT = "Load.D834_860RC"
860           3      37.7 +j   -2.5       37.7      -0.9978
860           1      21.0 +j   31.9       38.2       0.5508
  TERMINAL TOTAL  .    58.7 +j     29.3       65.6       0.8944

ELEMENT = "Load.D860_836SA"
860           1       9.7 +j   -0.5        9.7      -0.9987
860           2       5.3 +j    8.0        9.6       0.5538
  TERMINAL TOTAL  .    15.0 +j      7.5       16.8       0.8944

ELEMENT = "Load.D860_836RA"
836           1       9.7 +j   -0.5        9.7      -0.9987
836           2       5.3 +j    8.0        9.6       0.5538
  TERMINAL TOTAL  .    15.0 +j      7.5       16.8       0.8944

ELEMENT = "Load.D860_836SB"
860           2       3.4 +j    0.0        3.4       0.9999
860           3       1.6 +j    3.0        3.4       0.4827
  TERMINAL TOTAL  .     5.0 +j      3.0        5.8       0.8575

ELEMENT = "Load.D860_836RB"
836           2       3.4 +j    0.0        3.4       0.9999
836           3       1.6 +j    3.0        3.4       0.4827
  TERMINAL TOTAL  .     5.0 +j      3.0        5.8       0.8575

ELEMENT = "Load.D860_836SC"
860           3      13.6 +j   -0.7       13.6      -0.9989
860           1       7.4 +j   11.7       13.8       0.5350
  TERMINAL TOTAL  .    21.0 +j     11.0       23.7       0.8858

ELEMENT = "Load.D860_836RC"
836           3      13.6 +j   -0.7       13.6      -0.9989
836           1       7.4 +j   11.7       13.8       0.5349
  TERMINAL TOTAL  .    21.0 +j     11.0       23.7       0.8858

ELEMENT = "Load.D836_840SA"
836           1       6.0 +j   -0.3        6.0      -0.9987
836           2       3.3 +j    5.0        6.0       0.5538
  TERMINAL TOTAL  .     9.3 +j      4.7       10.5       0.8944

ELEMENT = "Load.D836_840RA"
840           1       6.0 +j   -0.3        6.0      -0.9987
840           2       3.3 +j    5.0        6.0       0.5538
  TERMINAL TOTAL  .     9.3 +j      4.7       10.5       0.8944

ELEMENT = "Load.D836_840SB"
836           2       7.3 +j   -0.5        7.3      -0.9980
836           3       4.0 +j    6.1        7.3       0.5485
  TERMINAL TOTAL  .    11.3 +j      5.6       12.6       0.8944

ELEMENT = "Load.D836_840RB"
840           2       7.3 +j   -0.5        7.3      -0.9980
840           3       4.0 +j    6.1        7.3       0.5485
  TERMINAL TOTAL  .    11.3 +j      5.6       12.6       0.8944

ELEMENT = "Load.D858_834SB"
858           2       4.9 +j   -0.2        4.9      -0.9993
858           3       2.6 +j    4.2        4.9       0.5260
  TERMINAL TOTAL  .     7.5 +j      4.0        8.5       0.8824

ELEMENT = "Load.D858_834RB"
834           2       4.9 +j   -0.2        4.9      -0.9993
834           3       2.6 +j    4.2        4.9       0.5262
  TERMINAL TOTAL  .     7.5 +j      4.0        8.5       0.8824

ELEMENT = "Load.D858_834SC"
858           3       4.2 +j   -0.2        4.2      -0.9994
858           1       2.3 +j    3.7        4.3       0.5258
  TERMINAL TOTAL  .     6.5 +j      3.5        7.4       0.8805

ELEMENT = "Load.D858_834RC"
834           3       4.2 +j   -0.2        4.2      -0.9993
834           1       2.3 +j    3.7        4.3       0.5254
  TERMINAL TOTAL  .     6.5 +j      3.5        7.4       0.8805

ELEMENT = "Load.D862_838SB"
862           2      14.0 +j    7.0       15.7       0.8944
862           0       0.0 +j    0.0        0.0       1.0000
  TERMINAL TOTAL  .    14.0 +j      7.0       15.7       0.8944

ELEMENT = "Load.D862_838RB"
838           2      14.0 +j    7.0       15.7       0.8944
838           0       0.0 +j    0.0        0.0       1.0000
  TERMINAL TOTAL  .    14.0 +j      7.0       15.7       0.8944


Total Circuit Losses =  159.2 +j  -48.6
